miqcp/testcases/nesta_case89_pegase__sad.m
%%%%%%%%%%%%%%%%%%%%%%%%%%%%%%%%%%%%%%%%%%%%%%%%%%%%%%%%%%%%%%%%%%%%%%%%%%%
%%%%                                                                  %%%%%
%%%%      NICTA Energy System Test Case Archive (NESTA) - v0.7.0      %%%%%
%%%%           Optimal Power Flow - Small Angle Difference            %%%%%
%%%%                         05 - June - 2017                         %%%%%
%%%%                                                                  %%%%%
%%%%%%%%%%%%%%%%%%%%%%%%%%%%%%%%%%%%%%%%%%%%%%%%%%%%%%%%%%%%%%%%%%%%%%%%%%%
function mpc = nesta_case89_pegase__sad
mpc.version = '2';
mpc.baseMVA = 100.0;

%% bus data
%	bus_i	type	Pd	Qd	Gs	Bs	area	Vm	Va	baseKV	zone	Vmax	Vmin
mpc.bus = [
	89	 1	 0.0	 0.0	 0.199111	 4.530599	 0	    1.00745	   -3.70538	 380.0	 2	    1.10000	    0.90000;
	228	 1	 -23.43	 57.4	 0.0	 0.0	 0	    1.06415	   -6.09824	 150.0	 2	    1.10000	    0.90000;
	271	 1	 96.7	 26.8	 0.0	 0.0	 0	    1.04820	   -8.01848	 150.0	 2	    1.10000	    0.90000;
	317	 1	 -0.0	 -0.0	 0.045946	 -1.82203	 0	    1.05653	   -0.70374	 380.0	 2	    1.10000	    0.90000;
	659	 1	 -0.0	 -0.0	 0.174507	 73.977052	 0	    1.05818	   -0.72698	 380.0	 2	    1.10000	    0.90000;
	792	 1	 295.3	 41.9	 0.0	 0.0	 0	    1.04807	   -7.06714	 150.0	 2	    1.10000	    0.90000;
	913	 3	 0.0	 0.0	 0.0	 0.0	 0	    1.03367	    0.00000	 380.0	 2	    1.10000	    0.90000;
	955	 1	 244.2	 152.7	 0.0	 0.0	 0	    1.00942	  -10.12428	 150.0	 2	    1.10000	    0.90000;
	1037	 1	 -0.0	 0.0	 0.0	 0.55	 0	    1.06060	   -1.79258	 380.0	 2	    1.10000	    0.90000;
	1163	 1	 -0.0	 -0.0	 0.0	 16.04	 0	    1.02341	   -3.31693	 380.0	 2	    1.10000	    0.90000;
	1317	 1	 149.3	 -2.0	 0.0	 20.77	 0	    1.04792	   -1.46258	 380.0	 2	    1.10000	    0.90000;
	1367	 1	 0.0	 -0.0	 0.175687	 -1.509401	 0	    1.03248	   -1.73530	 380.0	 2	    1.10000	    0.90000;
	1445	 1	 238.4	 210.9	 0.0	 0.0	 0	    1.04831	   -5.74157	 220.0	 2	    1.10000	    0.90000;
	1531	 1	 -0.0	 0.0	 0.0	 0.0	 0	    1.03695	   -9.45846	 150.0	 2	    1.10000	    0.90000;
	1579	 1	 -0.0	 0.0	 0.0	 16.56	 0	    1.01874	   -3.56392	 380.0	 2	    1.10000	    0.90000;
	1611	 1	 274.1	 166.5	 0.0	 0.56	 0	    1.05393	   -7.31635	 150.0	 2	    1.10000	    0.90000;
	1616	 1	 0.0	 0.0	 0.0	 14.45	 0	    1.01348	   -3.05654	 380.0	 2	    1.10000	    0.90000;
	1676	 1	 -0.0	 0.0	 0.171586	 -1.4632	 0	    1.02309	   -3.34091	 380.0	 2	    1.10000	    0.90000;
	1815	 1	 63.66	 9.7	 0.0	 0.0	 0	    1.06685	   -6.01637	 220.0	 2	    1.10000	    0.90000;
	1968	 1	 118.4	 137.0	 0.0	 0.0	 0	    1.03123	  -10.37964	 150.0	 2	    1.10000	    0.90000;
	2107	 2	 0.0	 0.0	 0.0	 0.0	 0	    1.03921	    0.41248	 380.0	 2	    1.10000	    0.90000;
	2154	 1	 -357.45	 33.05	 0.29	 -5.6	 0	    1.03475	    2.41587	 380.0	 2	    1.10000	    0.90000;
	2168	 1	 8.6	 -1.48	 0.0	 0.0	 0	    1.02437	  -12.19123	 150.0	 2	    1.10000	    0.90000;
	2267	 2	 0.0	 0.0	 0.0	 0.0	 0	    1.05217	    3.87084	 380.0	 2	    1.10000	    0.90000;
	2268	 1	 0.0	 -0.0	 0.183167	 22.675025	 0	    0.99914	   -4.05024	 380.0	 2	    1.10000	    0.90000;
	2299	 1	 402.1	 110.2	 0.0	 0.0	 0	    1.05344	   -8.84177	 150.0	 2	    1.10000	    0.90000;
	2441	 1	 0.0	 -0.0	 0.242534	 1.143584	 0	    0.99540	   -4.10419	 380.0	 2	    1.10000	    0.90000;
	2449	 1	 301.9	 -103.2	 0.0	 0.0	 0	    1.10000	   -8.45419	 150.0	 2	    1.10000	    0.90000;
	2520	 1	 -0.0	 -0.0	 0.057433	 3.80797	 0	    1.00836	   -3.77448	 380.0	 2	    1.10000	    0.90000;
	2870	 1	 -0.0	 0.0	 0.0	 0.62	 0	    1.06060	   -1.79258	 380.0	 2	    1.10000	    0.90000;
	2908	 1	 203.8	 61.0	 0.0	 0.6	 0	    1.02985	   -9.22351	 150.0	 2	    1.10000	    0.90000;
	3097	 1	 361.91	 3.66	 0.0	 9.39	 0	    1.05580	   -2.40946	 380.0	 2	    1.10000	    0.90000;
	3242	 1	 296.1	 82.3	 0.0	 0.0	 0	    1.06266	   -7.22259	 150.0	 2	    1.10000	    0.90000;
	3279	 1	 0.0	 0.0	 0.0	 0.0	 0	    1.04814	   -7.03766	 150.0	 2	    1.10000	    0.90000;
	3493	 1	 226.3	 61.1	 0.0	 0.0	 0	    1.05258	   -8.13531	 150.0	 2	    1.10000	    0.90000;
	3506	 1	 0.0	 0.0	 0.0	 0.6	 0	    1.00965	  -10.08971	 150.0	 2	    1.10000	    0.90000;
	3659	 2	 0.0	 0.0	 0.0	 0.0	 0	    1.04312	    1.00222	 380.0	 2	    1.10000	    0.90000;
	4014	 1	 0.0	 0.0	 0.0	 0.0	 0	    1.05929	   -7.36732	 150.0	 2	    1.10000	    0.90000;
	4423	 1	 -0.0	 -0.0	 0.0	 0.33	 0	    1.05346	   -8.82160	 150.0	 2	    1.10000	    0.90000;
	4427	 1	 296.8	 77.7	 0.0	 0.0	 0	    1.04689	   -9.17888	 150.0	 2	    1.10000	    0.90000;
	4495	 1	 336.3	 104.4	 0.0	 0.0	 0	    1.04956	   -9.38617	 150.0	 2	    1.10000	    0.90000;
	4586	 2	 0.0	 0.0	 0.0	 0.0	 0	    1.06078	   -7.00797	 150.0	 2	    1.10000	    0.90000;
	4665	 1	 390.5	 62.5	 0.0	 0.0	 0	    1.05074	   -9.85248	 150.0	 2	    1.10000	    0.90000;
	4929	 1	 37.0	 8.7	 0.070441	 50.913893	 0	    1.06059	   -1.79256	 380.0	 2	    1.10000	    0.90000;
	5097	 2	 0.0	 0.0	 0.0	 0.0	 0	    1.06260	   -7.22160	 150.0	 2	    1.10000	    0.90000;
	5155	 1	 411.3	 168.0	 0.0	 0.0	 0	    1.03997	   -9.16282	 150.0	 2	    1.10000	    0.90000;
	5210	 1	 347.61	 74.37	 0.0	 0.0	 0	    1.04889	   -5.37654	 220.0	 2	    1.10000	    0.90000;
	5416	 1	 0.0	 0.0	 0.0	 25.13	 0	    1.05112	    4.21523	 380.0	 2	    1.10000	    0.90000;
	5509	 1	 0.0	 0.0	 0.314057	 17.296509	 0	    1.01069	   -4.41987	 380.0	 2	    1.10000	    0.90000;
	5587	 1	 -0.0	 -0.0	 0.0	 0.33	 0	    1.05269	   -8.09917	 150.0	 2	    1.10000	    0.90000;
	5762	 1	 0.0	 0.0	 0.0	 2.23	 0	    1.03879	    0.68168	 380.0	 2	    1.10000	    0.90000;
	5776	 1	 222.7	 80.5	 0.0	 0.0	 0	    1.08515	   -8.56968	 150.0	 2	    1.10000	    0.90000;
	5848	 1	 0.0	 -0.0	 0.29	 -0.42	 0	    1.02153	   -3.21943	 380.0	 2	    1.10000	    0.90000;
	5996	 1	 -0.0	 -0.0	 0.164188	 4.023827	 0	    1.03874	    0.68191	 380.0	 2	    1.10000	    0.90000;
	6069	 1	 -456.66	 -131.97	 0.285753	 35.371068	 0	    0.98293	   -5.30902	 380.0	 2	    1.10000	    0.90000;
	6233	 2	 0.0	 0.0	 0.0	 0.0	 0	    1.05679	   -0.66569	 380.0	 2	    1.10000	    0.90000;
	6293	 1	 -0.0	 0.0	 0.0	 33.66	 0	    0.99849	   -3.73097	 380.0	 2	    1.10000	    0.90000;
	6542	 1	 355.98	 -147.98	 0.0	 0.0	 0	    1.07921	   -8.41217	 220.0	 2	    1.10000	    0.90000;
	6704	 1	 -0.0	 -0.0	 0.211099	 0.672832	 0	    1.01500	   -3.19080	 380.0	 2	    1.10000	    0.90000;
	6798	 2	 0.0	 0.0	 0.0	 0.0	 0	    1.06105	   -0.60531	 380.0	 2	    1.10000	    0.90000;
	6826	 1	 326.9	 -82.3	 0.0	 0.0	 0	    1.08691	   -8.70724	 150.0	 2	    1.10000	    0.90000;
	6833	 1	 0.0	 0.0	 0.246363	 4.841277	 0	    0.97420	   -6.03477	 380.0	 2	    1.10000	    0.90000;
	7051	 1	 0.0	 0.0	 0.0	 21.19	 0	    1.02787	   -3.13298	 380.0	 2	    1.10000	    0.90000;
	7180	 1	 -0.0	 0.0	 0.234234	 4.220723	 0	    0.97684	   -6.12370	 380.0	 2	    1.10000	    0.90000;
	7279	 2	 0.0	 0.0	 0.0	 0.0	 0	    1.05929	   -7.36732	 150.0	 2	    1.10000	    0.90000;
	7526	 1	 -179.73	 -63.08	 0.0	 0.0	 0	    1.02746	   -2.45623	 380.0	 2	    1.10000	    0.90000;
	7563	 1	 531.7	 -12.8	 0.0	 0.0	 0	    1.05410	  -10.04681	 150.0	 2	    1.10000	    0.90000;
	7637	 1	 0.0	 0.0	 0.29	 6.18	 0	    1.04918	   10.22889	 380.0	 2	    1.10000	    0.90000;
	7762	 1	 -0.0	 0.0	 0.304243	 48.453399	 0	    1.01711	   -2.35205	 380.0	 2	    1.10000	    0.90000;
	7829	 1	 -114.36	 30.04	 0.0	 0.0	 0	    1.07169	   -5.78011	 220.0	 2	    1.10000	    0.90000;
	7960	 2	 0.0	 0.0	 0.0	 0.0	 0	    1.05993	   -0.66374	 380.0	 2	    1.10000	    0.90000;
	8103	 1	 39.34	 -10.7	 0.0	 0.0	 0	    1.01812	   -4.41932	 150.0	 2	    1.10000	    0.90000;
	8179	 1	 -0.0	 0.0	 0.194464	 19.1468	 0	    1.01134	   -3.55486	 380.0	 2	    1.10000	    0.90000;
	8181	 1	 0.0	 -0.0	 0.210824	 6.620599	 0	    1.01109	   -3.33355	 380.0	 2	    1.10000	    0.90000;
	8229	 1	 0.0	 0.0	 0.0	 0.0	 0	    1.08515	   -8.56968	 150.0	 2	    1.10000	    0.90000;
	8329	 1	 0.0	 0.0	 0.149712	 2.04987	 0	    1.05248	   -1.20302	 380.0	 2	    1.10000	    0.90000;
	8335	 1	 637.92	 139.57	 0.0	 0.0	 0	    1.03695	   -9.48054	 150.0	 2	    1.10000	    0.90000;
	8420	 1	 -0.0	 0.0	 0.0	 0.0	 0	    1.05422	   -7.27267	 150.0	 2	    1.10000	    0.90000;
	8574	 1	 -0.0	 0.0	 0.447839	 20.994738	 0	    1.01338	   -3.34802	 380.0	 2	    1.10000	    0.90000;
	8581	 1	 -1299.13	 -140.85	 0.0	 0.0	 0	    1.05348	   21.14660	 380.0	 2	    1.10000	    0.90000;
	8605	 2	 0.0	 0.0	 0.0	 0.0	 0	    1.03291	   -1.67515	 380.0	 2	    1.10000	    0.90000;
	8847	 1	 -0.0	 0.0	 0.18076	 -0.881251	 0	    1.02600	   -3.37903	 380.0	 2	    1.10000	    0.90000;
	8921	 1	 0.0	 0.0	 0.0	 16.37	 0	    1.01751	   -2.98155	 380.0	 2	    1.10000	    0.90000;
	8964	 1	 925.91	 147.97	 0.0	 0.0	 0	    1.02424	  -12.22247	 150.0	 2	    1.10000	    0.90000;
	9024	 1	 0.0	 0.0	 0.141019	 25.246	 0	    1.06646	   -4.58277	 380.0	 2	    1.10000	    0.90000;
	9025	 1	 0.0	 -0.0	 0.205903	 3.0768	 0	    1.01234	   -3.10148	 380.0	 2	    1.10000	    0.90000;
	9064	 1	 0.0	 -0.0	 0.0	 15.26	 0	    1.01335	   -3.09714	 380.0	 2	    1.10000	    0.90000;
	9192	 1	 17.92	 23.3	 0.0	 0.0	 0	    1.03222	  -10.14016	 150.0	 2	    1.10000	    0.90000;
	9239	 2	 0.0	 0.0	 0.0	 0.0	 0	    1.05999	   -0.66147	 380.0	 2	    1.10000	    0.90000;
];

%% generator data
%	bus	Pg	Qg	Qmax	Qmin	Vg	mBase	status	Pmax	Pmin	Pc1	Pc2	Qc1min	Qc1max	Qc2min	Qc2max	ramp_agc	ramp_10	ramp_30	ramp_q	apf
mpc.gen = [
	913	 1694.059	 527.8	 772.11	 -269.94	 1.03367	 100.0	 1	 1700.0	 566.67	 0.0	 0.0	 0.0	 0.0	 0.0	 0.0	 0.0	 0.0	 0.0	 0.0	 0.0;
	2107	 1209.679	 661.9	 661.9	 -257.62	 1.03921	 100.0	 1	 1500.0	 500.0	 0.0	 0.0	 0.0	 0.0	 0.0	 0.0	 0.0	 0.0	 0.0	 0.0	 0.0;
	2267	 166.67	 228.16	 228.16	 -78.83	 1.05217	 100.0	 1	 500.0	 166.67	 0.0	 0.0	 0.0	 0.0	 0.0	 0.0	 0.0	 0.0	 0.0	 0.0	 0.0;
	3659	 666.67	 372.31	 943.64	 -282.01	 1.04312	 100.0	 1	 2000.0	 666.67	 0.0	 0.0	 0.0	 0.0	 0.0	 0.0	 0.0	 0.0	 0.0	 0.0	 0.0;
	4586	 50.946	 -29.81	 92.96	 -29.81	 1.06078	 100.0	 1	 100.0	 -727.6	 0.0	 0.0	 0.0	 0.0	 0.0	 0.0	 0.0	 0.0	 0.0	 0.0	 0.0;
	5097	 21.23	 4.171	 8.91	 -4.11	 1.0626	 100.0	 1	 21.23	 7.08	 0.0	 0.0	 0.0	 0.0	 0.0	 0.0	 0.0	 0.0	 0.0	 0.0	 0.0;
	6233	 532.01	 -189.97	 545.68	 -189.97	 1.05679	 100.0	 1	 1200.0	 400.0	 0.0	 0.0	 0.0	 0.0	 0.0	 0.0	 0.0	 0.0	 0.0	 0.0	 0.0;
	6798	 333.331	 355.857	 429.61	 -183.48	 1.06105	 100.0	 1	 1000.0	 333.33	 0.0	 0.0	 0.0	 0.0	 0.0	 0.0	 0.0	 0.0	 0.0	 0.0	 0.0;
	7279	 100.0	 -6.64	 14.78	 -6.64	 1.05929	 100.0	 1	 100.0	 -908.93	 0.0	 0.0	 0.0	 0.0	 0.0	 0.0	 0.0	 0.0	 0.0	 0.0	 0.0;
	7960	 222.612	 274.199	 274.2	 -93.22	 1.05993	 100.0	 1	 600.0	 200.0	 0.0	 0.0	 0.0	 0.0	 0.0	 0.0	 0.0	 0.0	 0.0	 0.0	 0.0;
	8605	 600.0	 125.51	 273.94	 -93.65	 1.03291	 100.0	 1	 600.0	 200.0	 0.0	 0.0	 0.0	 0.0	 0.0	 0.0	 0.0	 0.0	 0.0	 0.0	 0.0;
	9239	 222.601	 274.199	 274.2	 -93.22	 1.05999	 100.0	 1	 600.0	 200.0	 0.0	 0.0	 0.0	 0.0	 0.0	 0.0	 0.0	 0.0	 0.0	 0.0	 0.0;
];

%% generator cost data
%	2	startup	shutdown	n	c(n-1)	...	c0
mpc.gencost = [
	2	 0.0	 0.0	 3	   0.000000	   1.000000	   0.000000;
	2	 0.0	 0.0	 3	   0.000000	   1.000000	   0.000000;
	2	 0.0	 0.0	 3	   0.000000	   1.000000	   0.000000;
	2	 0.0	 0.0	 3	   0.000000	   1.000000	   0.000000;
	2	 0.0	 0.0	 3	   0.000000	   1.000000	   0.000000;
	2	 0.0	 0.0	 3	   0.000000	   1.000000	   0.000000;
	2	 0.0	 0.0	 3	   0.000000	   1.000000	   0.000000;
	2	 0.0	 0.0	 3	   0.000000	   1.000000	   0.000000;
	2	 0.0	 0.0	 3	   0.000000	   1.000000	   0.000000;
	2	 0.0	 0.0	 3	   0.000000	   1.000000	   0.000000;
	2	 0.0	 0.0	 3	   0.000000	   1.000000	   0.000000;
	2	 0.0	 0.0	 3	   0.000000	   1.000000	   0.000000;
];

%% branch data
%	fbus	tbus	r	x	b	rateA	rateB	rateC	ratio	angle	status	angmin	angmax
mpc.branch = [
	3097	 659	 0.00073	 0.00905	 0.0	 1205.0	 3480.0	 3480.0	 0.0	 0.0	 1	 -10.927992	 10.927992;
	9024	 4929	 0.00192	 0.02296	 0.0	 909.0	 1371.0	 1371.0	 0.0	 0.0	 1	 -10.927992	 10.927992;
	1815	 6542	 0.01431	 0.05899	 0.0	 521.0	 521.0	 521.0	 0.0	 0.0	 1	 -10.927992	 10.927992;
	6542	 1445	 0.02607	 0.07168	 0.0	 415.0	 415.0	 415.0	 0.0	 0.0	 1	 -10.927992	 10.927992;
	6069	 6833	 0.00054	 0.00465	 0.0	 1600.0	 6748.0	 6748.0	 0.0	 0.0	 1	 -10.927992	 10.927992;
	6069	 2268	 0.00126	 0.01124	 0.0	 1633.0	 2793.0	 2793.0	 0.0	 0.0	 1	 -10.927992	 10.927992;
	6069	 7180	 0.00048	 0.00527	 0.0	 1567.0	 5970.0	 5970.0	 0.0	 0.0	 1	 -10.927992	 10.927992;
	6069	 6293	 0.00082	 0.00938	 0.0	 1600.0	 3355.0	 3355.0	 0.0	 0.0	 1	 -10.927992	 10.927992;
	1968	 9192	 0.00028	 0.003502	 0.0	 8992.0	 8992.0	 8992.0	 0.0	 0.0	 1	 -10.927992	 10.927992;
	1968	 3493	 0.691467	 4.414711	 0.0	 8.0	 8.0	 8.0	 0.0	 0.0	 1	 -10.927992	 10.927992;
	1968	 955	 0.02004	 0.0916	 0.0	 337.0	 337.0	 337.0	 0.0	 0.0	 1	 -10.927992	 10.927992;
	1968	 228	 0.841911	 4.768444	 0.0	 7.0	 7.0	 7.0	 0.0	 0.0	 1	 -10.927992	 10.927992;
	1968	 6826	 0.026	 0.08948	 0.0	 339.0	 339.0	 339.0	 0.0	 0.0	 1	 -10.927992	 10.927992;
	1968	 8964	 0.002631	 0.011889	 0.0	 319.0	 2595.0	 2595.0	 0.0	 0.0	 1	 -10.927992	 10.927992;
	1968	 5776	 0.7232	 1.944	 0.0	 16.0	 16.0	 16.0	 0.0	 0.0	 1	 -10.927992	 10.927992;
	9192	 955	 0.156169	 0.546756	 0.0	 56.0	 56.0	 56.0	 0.0	 0.0	 1	 -10.927992	 10.927992;
	9192	 6826	 0.168809	 0.580622	 0.0	 53.0	 53.0	 53.0	 0.0	 0.0	 1	 -10.927992	 10.927992;
	9192	 8964	 0.019222	 0.068209	 0.0	 446.0	 446.0	 446.0	 0.0	 0.0	 1	 -10.927992	 10.927992;
	8574	 1616	 0.00039	 0.00386	 0.0	 1435.0	 8142.0	 8142.0	 0.0	 0.0	 1	 -10.927992	 10.927992;
	8574	 1163	 0.00096	 0.01138	 0.0	 1468.0	 2766.0	 2766.0	 0.0	 0.0	 1	 -10.927992	 10.927992;
	8574	 9064	 0.00037	 0.00325	 0.0	 1435.0	 9657.0	 9657.0	 0.0	 0.0	 1	 -10.927992	 10.927992;
	8574	 8921	 0.00029	 0.00339	 0.0	 1600.0	 9284.0	 9284.0	 0.0	 0.0	 1	 -10.927992	 10.927992;
	3493	 2299	 0.009458	 0.158871	 0.0	 199.0	 199.0	 199.0	 0.0	 0.0	 1	 -10.927992	 10.927992;
	2299	 4423	 0.0	 0.000222	 0.0	 142286.0	 142286.0	 142286.0	 0.0	 0.0	 1	 -10.927992	 10.927992;
	6826	 2299	 0.312951	 7.130667	 0.0	 5.0	 5.0	 5.0	 0.0	 0.0	 1	 -10.927992	 10.927992;
	7563	 2299	 0.247649	 1.075911	 0.0	 29.0	 29.0	 29.0	 0.0	 0.0	 1	 -10.927992	 10.927992;
	4427	 2299	 0.06056	 0.18612	 0.0	 162.0	 162.0	 162.0	 0.0	 0.0	 1	 -10.927992	 10.927992;
	8335	 2299	 2.142489	 4.347733	 0.0	 7.0	 7.0	 7.0	 0.0	 0.0	 1	 -10.927992	 10.927992;
	5155	 2299	 0.07132	 1.068889	 0.0	 30.0	 30.0	 30.0	 0.0	 0.0	 1	 -10.927992	 10.927992;
	271	 2299	 0.02268	 0.08652	 0.0	 354.0	 354.0	 354.0	 0.0	 0.0	 1	 -10.927992	 10.927992;
	2449	 2299	 2.007778	 4.494222	 0.0	 7.0	 7.0	 7.0	 0.0	 0.0	 1	 -10.927992	 10.927992;
	4665	 2299	 0.006178	 0.028938	 0.0	 1068.0	 1068.0	 1068.0	 0.0	 0.0	 1	 -10.927992	 10.927992;
	4495	 2299	 0.027711	 0.260951	 0.0	 121.0	 121.0	 121.0	 0.0	 0.0	 1	 -10.927992	 10.927992;
	3493	 5587	 0.0	 0.000222	 0.0	 319.0	 142286.0	 142286.0	 0.0	 0.0	 1	 -10.927992	 10.927992;
	4586	 3493	 0.00692	 0.337378	 0.0	 94.0	 94.0	 94.0	 0.0	 0.0	 1	 -10.927992	 10.927992;
	228	 3493	 0.025991	 0.10048	 0.0	 305.0	 305.0	 305.0	 0.0	 0.0	 1	 -10.927992	 10.927992;
	6826	 3493	 0.083711	 0.8648	 0.0	 37.0	 37.0	 37.0	 0.0	 0.0	 1	 -10.927992	 10.927992;
	7563	 3493	 0.447378	 1.862089	 0.0	 17.0	 17.0	 17.0	 0.0	 0.0	 1	 -10.927992	 10.927992;
	4427	 3493	 0.062169	 0.153191	 0.0	 192.0	 192.0	 192.0	 0.0	 0.0	 1	 -10.927992	 10.927992;
	8335	 3493	 2.492533	 4.725778	 0.0	 6.0	 6.0	 6.0	 0.0	 0.0	 1	 -10.927992	 10.927992;
	5155	 3493	 0.020271	 0.08244	 0.0	 373.0	 373.0	 373.0	 0.0	 0.0	 1	 -10.927992	 10.927992;
	271	 3493	 0.11416	 1.777556	 0.0	 18.0	 18.0	 18.0	 0.0	 0.0	 1	 -10.927992	 10.927992;
	5776	 3493	 0.574978	 2.992578	 0.0	 11.0	 11.0	 11.0	 0.0	 0.0	 1	 -10.927992	 10.927992;
	2449	 3493	 1.887067	 4.964444	 0.0	 6.0	 6.0	 6.0	 0.0	 0.0	 1	 -10.927992	 10.927992;
	4665	 3493	 0.250778	 0.817422	 0.0	 37.0	 37.0	 37.0	 0.0	 0.0	 1	 -10.927992	 10.927992;
	4495	 3493	 0.007049	 0.029609	 0.0	 1038.0	 1038.0	 1038.0	 0.0	 0.0	 1	 -10.927992	 10.927992;
	5587	 4586	 0.003049	 0.020218	 0.0	 1545.0	 1545.0	 1545.0	 0.0	 0.0	 1	 -10.927992	 10.927992;
	4423	 4586	 0.002911	 0.020262	 0.0	 1544.0	 1544.0	 1544.0	 0.0	 0.0	 1	 -10.927992	 10.927992;
	4929	 2870	 4e-05	 0.00041	 0.0	 777.0	 76679.0	 76679.0	 0.0	 0.0	 1	 -10.927992	 10.927992;
	4929	 659	 0.00087	 0.01087	 0.0	 1303.0	 2897.0	 2897.0	 0.0	 0.0	 1	 -10.927992	 10.927992;
	4929	 1037	 4e-05	 0.00046	 0.0	 777.0	 68410.0	 68410.0	 0.0	 0.0	 1	 -10.927992	 10.927992;
	4929	 659	 0.00095	 0.00924	 0.0	 1501.0	 3401.0	 3401.0	 0.0	 0.0	 1	 -10.927992	 10.927992;
	1815	 5210	 0.528017	 2.636157	 0.0	 12.0	 12.0	 12.0	 0.0	 0.0	 1	 -10.927992	 10.927992;
	1815	 1445	 0.032031	 0.128659	 0.0	 239.0	 239.0	 239.0	 0.0	 0.0	 1	 -10.927992	 10.927992;
	1616	 7762	 0.00044	 0.0032	 0.0	 1665.0	 9780.0	 9780.0	 0.0	 0.0	 1	 -10.927992	 10.927992;
	1616	 2520	 0.00046	 0.00489	 0.0	 1731.0	 6432.0	 6432.0	 0.0	 0.0	 1	 -10.927992	 10.927992;
	9064	 7762	 0.0003	 0.00352	 0.0	 1600.0	 8942.0	 8942.0	 0.0	 0.0	 1	 -10.927992	 10.927992;
	9064	 89	 0.00051	 0.00454	 0.0	 1665.0	 6915.0	 6915.0	 0.0	 0.0	 1	 -10.927992	 10.927992;
	1317	 659	 0.00068	 0.00746	 0.0	 1633.0	 4217.0	 4217.0	 0.0	 0.0	 1	 -10.927992	 10.927992;
	1317	 8605	 0.00093	 0.01022	 0.0	 1764.0	 3079.0	 3079.0	 0.0	 0.0	 1	 -10.927992	 10.927992;
	8605	 1367	 4e-05	 0.0004	 0.0	 1501.0	 78577.0	 78577.0	 0.0	 0.0	 1	 -10.927992	 10.927992;
	8605	 8921	 0.00078	 0.00698	 0.0	 1764.0	 4498.0	 4498.0	 0.0	 0.0	 1	 -10.927992	 10.927992;
	1163	 1676	 4e-05	 0.00043	 0.0	 1600.0	 73144.0	 73144.0	 0.0	 0.0	 1	 -10.927992	 10.927992;
	1163	 7051	 0.00025	 0.00309	 0.0	 1698.0	 10190.0	 10190.0	 0.0	 0.0	 1	 -10.927992	 10.927992;
	913	 7762	 0.00047	 0.00538	 0.0	 1633.0	 5849.0	 5849.0	 0.0	 0.0	 1	 -10.927992	 10.927992;
	2107	 7762	 0.00046	 0.00548	 0.0	 1764.0	 5744.0	 5744.0	 0.0	 0.0	 1	 -10.927992	 10.927992;
	2107	 5996	 0.00016	 0.00173	 0.0	 1863.0	 18181.0	 18181.0	 0.0	 0.0	 1	 -10.927992	 10.927992;
	2107	 6293	 0.00166	 0.01471	 0.0	 1764.0	 2134.0	 2134.0	 0.0	 0.0	 1	 -10.927992	 10.927992;
	913	 7762	 0.00051	 0.00512	 0.0	 1797.0	 6140.0	 6140.0	 0.0	 0.0	 1	 -10.927992	 10.927992;
	6704	 8921	 0.00021	 0.00248	 0.0	 1534.0	 12692.0	 12692.0	 0.0	 0.0	 1	 -10.927992	 10.927992;
	228	 4586	 0.004391	 0.021689	 0.0	 306.0	 1428.0	 1428.0	 0.0	 0.0	 1	 -10.927992	 10.927992;
	2441	 6293	 0.00024	 0.00289	 0.0	 1665.0	 10893.0	 10893.0	 0.0	 0.0	 1	 -10.927992	 10.927992;
	955	 3506	 0.0	 0.000222	 0.0	 358.0	 142286.0	 142286.0	 0.0	 0.0	 1	 -10.927992	 10.927992;
	955	 8964	 0.01788	 0.100471	 0.0	 310.0	 310.0	 310.0	 0.0	 0.0	 1	 -10.927992	 10.927992;
	3506	 2908	 0.006458	 0.039982	 0.0	 780.0	 780.0	 780.0	 0.0	 0.0	 1	 -10.927992	 10.927992;
	228	 6826	 0.106151	 0.993333	 0.0	 32.0	 32.0	 32.0	 0.0	 0.0	 1	 -10.927992	 10.927992;
	228	 5776	 0.699778	 3.232311	 0.0	 10.0	 10.0	 10.0	 0.0	 0.0	 1	 -10.927992	 10.927992;
	8964	 6826	 0.257058	 0.43592	 0.0	 63.0	 63.0	 63.0	 0.0	 0.0	 1	 -10.927992	 10.927992;
	5776	 6826	 0.002769	 0.011449	 0.0	 2682.0	 2682.0	 2682.0	 0.0	 0.0	 1	 -10.927992	 10.927992;
	659	 8329	 0.00034	 0.00305	 0.0	 1600.0	 10293.0	 10293.0	 0.0	 0.0	 1	 -10.927992	 10.927992;
	659	 7051	 0.00123	 0.01255	 0.0	 1863.0	 2505.0	 2505.0	 0.0	 0.0	 1	 -10.927992	 10.927992;
	659	 9239	 6e-05	 0.00065	 0.0	 1435.0	 48391.0	 48391.0	 0.0	 0.0	 1	 -10.927992	 10.927992;
	659	 7960	 6e-05	 0.00063	 0.0	 1534.0	 49913.0	 49913.0	 0.0	 0.0	 1	 -10.927992	 10.927992;
	659	 6233	 6e-05	 0.00055	 0.0	 1764.0	 57093.0	 57093.0	 0.0	 0.0	 1	 -10.927992	 10.927992;
	659	 5416	 0.00079	 0.00968	 0.0	 1369.0	 3253.0	 3253.0	 0.0	 0.0	 1	 -10.927992	 10.927992;
	659	 6798	 7e-05	 0.00079	 0.0	 39828.0	 39828.0	 39828.0	 0.0	 0.0	 1	 -10.927992	 10.927992;
	792	 3279	 0.0	 0.000222	 0.0	 397.0	 142286.0	 142286.0	 0.0	 0.0	 1	 -10.927992	 10.927992;
	7563	 792	 2.064178	 7.545333	 0.0	 5.0	 5.0	 5.0	 0.0	 0.0	 1	 -10.927992	 10.927992;
	7279	 792	 0.153711	 0.482489	 0.0	 63.0	 63.0	 63.0	 0.0	 0.0	 1	 -10.927992	 10.927992;
	8335	 792	 0.015809	 0.12368	 0.0	 254.0	 254.0	 254.0	 0.0	 0.0	 1	 -10.927992	 10.927992;
	2449	 792	 0.057978	 0.363422	 0.0	 86.0	 86.0	 86.0	 0.0	 0.0	 1	 -10.927992	 10.927992;
	4665	 792	 0.6932	 2.196889	 0.0	 14.0	 14.0	 14.0	 0.0	 0.0	 1	 -10.927992	 10.927992;
	4495	 792	 0.560356	 2.395867	 0.0	 13.0	 13.0	 13.0	 0.0	 0.0	 1	 -10.927992	 10.927992;
	5416	 2267	 0.00024	 0.00213	 0.0	 777.0	 14737.0	 14737.0	 0.0	 0.0	 1	 -10.927992	 10.927992;
	5416	 7637	 0.00093	 0.00884	 0.0	 1303.0	 3554.0	 3554.0	 0.0	 0.0	 1	 -10.927992	 10.927992;
	8964	 2168	 0.0	 0.000222	 0.0	 332.0	 142286.0	 142286.0	 0.0	 0.0	 1	 -10.927992	 10.927992;
	3659	 5996	 0.00018	 0.00204	 0.0	 1797.0	 15425.0	 15425.0	 0.0	 0.0	 1	 -10.927992	 10.927992;
	5762	 5996	 0.00018	 0.00208	 0.0	 777.0	 15130.0	 15130.0	 0.0	 0.0	 1	 -10.927992	 10.927992;
	3242	 5097	 0.0	 0.000222	 0.0	 142286.0	 142286.0	 142286.0	 0.0	 0.0	 1	 -10.927992	 10.927992;
	7563	 3242	 0.02068	 0.093391	 0.0	 331.0	 331.0	 331.0	 0.0	 0.0	 1	 -10.927992	 10.927992;
	4427	 3242	 0.777778	 7.408	 0.0	 5.0	 5.0	 5.0	 0.0	 0.0	 1	 -10.927992	 10.927992;
	3242	 7279	 0.00884	 0.07292	 0.0	 431.0	 431.0	 431.0	 0.0	 0.0	 1	 -10.927992	 10.927992;
	271	 3242	 0.131671	 8.295556	 0.0	 4.0	 4.0	 4.0	 0.0	 0.0	 1	 -10.927992	 10.927992;
	3242	 1611	 0.082462	 0.568222	 0.0	 56.0	 56.0	 56.0	 0.0	 0.0	 1	 -10.927992	 10.927992;
	5097	 1611	 0.0042	 0.02624	 0.0	 1189.0	 1189.0	 1189.0	 0.0	 0.0	 1	 -10.927992	 10.927992;
	8181	 8179	 0.00031	 0.00317	 0.0	 1271.0	 9918.0	 9918.0	 0.0	 0.0	 1	 -10.927992	 10.927992;
	8181	 7762	 0.00043	 0.00498	 0.0	 1501.0	 6320.0	 6320.0	 0.0	 0.0	 1	 -10.927992	 10.927992;
	9025	 7762	 0.00042	 0.00508	 0.0	 1731.0	 6197.0	 6197.0	 0.0	 0.0	 1	 -10.927992	 10.927992;
	7563	 4427	 0.110671	 0.773067	 0.0	 41.0	 41.0	 41.0	 0.0	 0.0	 1	 -10.927992	 10.927992;
	7563	 7279	 0.00912	 0.037609	 0.0	 817.0	 817.0	 817.0	 0.0	 0.0	 1	 -10.927992	 10.927992;
	7563	 8335	 0.098049	 0.598711	 0.0	 53.0	 53.0	 53.0	 0.0	 0.0	 1	 -10.927992	 10.927992;
	7563	 5155	 0.019031	 1.160356	 0.0	 28.0	 28.0	 28.0	 0.0	 0.0	 1	 -10.927992	 10.927992;
	7563	 271	 0.024071	 0.915733	 0.0	 35.0	 35.0	 35.0	 0.0	 0.0	 1	 -10.927992	 10.927992;
	2449	 7563	 1.484267	 4.479111	 0.0	 7.0	 7.0	 7.0	 0.0	 0.0	 1	 -10.927992	 10.927992;
	4665	 7563	 0.011578	 0.063271	 0.0	 492.0	 492.0	 492.0	 0.0	 0.0	 1	 -10.927992	 10.927992;
	4495	 7563	 0.654889	 1.839111	 0.0	 17.0	 17.0	 17.0	 0.0	 0.0	 1	 -10.927992	 10.927992;
	7563	 1611	 0.022049	 0.10076	 0.0	 307.0	 307.0	 307.0	 0.0	 0.0	 1	 -10.927992	 10.927992;
	4427	 7279	 0.459867	 2.604711	 0.0	 12.0	 12.0	 12.0	 0.0	 0.0	 1	 -10.927992	 10.927992;
	4427	 8335	 2.320222	 6.088	 0.0	 5.0	 5.0	 5.0	 0.0	 0.0	 1	 -10.927992	 10.927992;
	4427	 5155	 0.006369	 0.048089	 0.0	 652.0	 652.0	 652.0	 0.0	 0.0	 1	 -10.927992	 10.927992;
	4427	 271	 0.006631	 0.0432	 0.0	 723.0	 723.0	 723.0	 0.0	 0.0	 1	 -10.927992	 10.927992;
	2449	 4427	 2.567244	 6.767111	 0.0	 5.0	 5.0	 5.0	 0.0	 0.0	 1	 -10.927992	 10.927992;
	4665	 4427	 0.309889	 1.214178	 0.0	 26.0	 26.0	 26.0	 0.0	 0.0	 1	 -10.927992	 10.927992;
	4495	 4427	 0.009191	 0.043289	 0.0	 714.0	 714.0	 714.0	 0.0	 0.0	 1	 -10.927992	 10.927992;
	4427	 1611	 0.691022	 5.239556	 0.0	 6.0	 6.0	 6.0	 0.0	 0.0	 1	 -10.927992	 10.927992;
	5210	 1445	 0.002669	 0.01718	 0.0	 1817.0	 1817.0	 1817.0	 0.0	 0.0	 1	 -10.927992	 10.927992;
	8179	 5509	 0.00074	 0.00694	 0.0	 1271.0	 4526.0	 4526.0	 0.0	 0.0	 1	 -10.927992	 10.927992;
	8179	 7762	 0.00068	 0.008	 0.0	 1567.0	 3935.0	 3935.0	 0.0	 0.0	 1	 -10.927992	 10.927992;
	7279	 4014	 0.0	 0.000222	 0.0	 142286.0	 142286.0	 142286.0	 0.0	 0.0	 1	 -10.927992	 10.927992;
	8335	 7279	 0.00524	 0.030631	 0.0	 1017.0	 1017.0	 1017.0	 0.0	 0.0	 1	 -10.927992	 10.927992;
	5155	 7279	 0.33932	 3.814667	 0.0	 9.0	 9.0	 9.0	 0.0	 0.0	 1	 -10.927992	 10.927992;
	271	 7279	 0.22696	 2.614933	 0.0	 13.0	 13.0	 13.0	 0.0	 0.0	 1	 -10.927992	 10.927992;
	2449	 7279	 0.190671	 0.719378	 0.0	 43.0	 43.0	 43.0	 0.0	 0.0	 1	 -10.927992	 10.927992;
	4665	 7279	 1.050222	 2.105556	 0.0	 14.0	 14.0	 14.0	 0.0	 0.0	 1	 -10.927992	 10.927992;
	4495	 7279	 1.431644	 4.294578	 0.0	 7.0	 7.0	 7.0	 0.0	 0.0	 1	 -10.927992	 10.927992;
	1611	 7279	 0.022618	 0.161089	 0.0	 195.0	 195.0	 195.0	 0.0	 0.0	 1	 -10.927992	 10.927992;
	5509	 1579	 0.00088	 0.00895	 0.0	 1830.0	 3513.0	 3513.0	 0.0	 0.0	 1	 -10.927992	 10.927992;
	8335	 1531	 0.0	 0.000222	 0.0	 319.0	 142286.0	 142286.0	 0.0	 0.0	 1	 -10.927992	 10.927992;
	5155	 8335	 1.827778	 7.768	 0.0	 4.0	 4.0	 4.0	 0.0	 0.0	 1	 -10.927992	 10.927992;
	2449	 8335	 0.020849	 0.153382	 0.0	 205.0	 205.0	 205.0	 0.0	 0.0	 1	 -10.927992	 10.927992;
	4665	 8335	 0.156231	 0.656267	 0.0	 47.0	 47.0	 47.0	 0.0	 0.0	 1	 -10.927992	 10.927992;
	4495	 8335	 0.176498	 0.891556	 0.0	 35.0	 35.0	 35.0	 0.0	 0.0	 1	 -10.927992	 10.927992;
	7762	 2268	 0.00067	 0.00777	 0.0	 1633.0	 4051.0	 4051.0	 0.0	 0.0	 1	 -10.927992	 10.927992;
	5155	 271	 0.004578	 0.061889	 0.0	 509.0	 509.0	 509.0	 0.0	 0.0	 1	 -10.927992	 10.927992;
	5155	 2908	 0.01348	 0.05932	 0.0	 520.0	 520.0	 520.0	 0.0	 0.0	 1	 -10.927992	 10.927992;
	4665	 5155	 0.066391	 2.802622	 0.0	 12.0	 12.0	 12.0	 0.0	 0.0	 1	 -10.927992	 10.927992;
	4495	 5155	 0.194258	 2.220444	 0.0	 15.0	 15.0	 15.0	 0.0	 0.0	 1	 -10.927992	 10.927992;
	5155	 1611	 0.008151	 0.072822	 0.0	 432.0	 432.0	 432.0	 0.0	 0.0	 1	 -10.927992	 10.927992;
	271	 2908	 0.016502	 0.055382	 0.0	 547.0	 547.0	 547.0	 0.0	 0.0	 1	 -10.927992	 10.927992;
	4665	 271	 0.0806	 4.633778	 0.0	 7.0	 7.0	 7.0	 0.0	 0.0	 1	 -10.927992	 10.927992;
	4495	 271	 0.831556	 3.729644	 0.0	 9.0	 9.0	 9.0	 0.0	 0.0	 1	 -10.927992	 10.927992;
	271	 1611	 0.007951	 0.074151	 0.0	 424.0	 424.0	 424.0	 0.0	 0.0	 1	 -10.927992	 10.927992;
	1579	 5848	 0.0004	 0.00362	 0.0	 1633.0	 8673.0	 8673.0	 0.0	 0.0	 1	 -10.927992	 10.927992;
	7051	 8847	 0.00015	 0.00177	 0.0	 1600.0	 17783.0	 17783.0	 0.0	 0.0	 1	 -10.927992	 10.927992;
	5776	 8229	 0.0	 0.000222	 0.0	 142286.0	 142286.0	 142286.0	 0.0	 0.0	 1	 -10.927992	 10.927992;
	317	 6233	 2e-05	 0.00022	 0.0	 1698.0	 142990.0	 142990.0	 0.0	 0.0	 1	 -10.927992	 10.927992;
	4665	 2449	 0.02864	 0.172902	 0.0	 181.0	 181.0	 181.0	 0.0	 0.0	 1	 -10.927992	 10.927992;
	2449	 4495	 0.017591	 0.1404	 0.0	 224.0	 224.0	 224.0	 0.0	 0.0	 1	 -10.927992	 10.927992;
	4665	 4495	 0.00752	 0.031711	 0.0	 970.0	 970.0	 970.0	 0.0	 0.0	 1	 -10.927992	 10.927992;
	1611	 8420	 0.0	 0.000222	 0.0	 566.0	 142286.0	 142286.0	 0.0	 0.0	 1	 -10.927992	 10.927992;
	9024	 6542	 0.000742	 0.067219	 0.0	 470.0	 470.0	 470.0	 0.994359	 0.0	 1	 -10.927992	 10.927992;
	9024	 6542	 0.000793	 0.06388	 0.0	 495.0	 495.0	 495.0	 0.998418	 0.0	 1	 -10.927992	 10.927992;
	6069	 9192	 0.000609	 0.046809	 0.0	 675.0	 675.0	 675.0	 0.933053	 0.0	 1	 -10.927992	 10.927992;
	6069	 1968	 0.00059	 0.04521	 0.0	 699.0	 699.0	 699.0	 0.91223	 0.0	 1	 -10.927992	 10.927992;
	7829	 1968	 0.519194	 5.108058	 0.0	 7.0	 7.0	 7.0	 0.0	 0.0	 1	 -10.927992	 10.927992;
	8574	 2299	 0.000559	 0.039982	 0.0	 790.0	 790.0	 790.0	 0.919523	 0.0	 1	 -10.927992	 10.927992;
	8574	 5587	 0.000537	 0.045312	 0.0	 698.0	 698.0	 698.0	 0.948262	 0.0	 1	 -10.927992	 10.927992;
	4929	 1815	 0.000889	 0.061549	 0.0	 514.0	 514.0	 514.0	 0.996867	 0.0	 1	 -10.927992	 10.927992;
	1815	 792	 1.467822	 7.764888	 0.0	 4.0	 4.0	 4.0	 0.0	 0.0	 1	 -10.927992	 10.927992;
	6704	 4586	 0.000586	 0.049031	 0.0	 645.0	 645.0	 645.0	 0.923407	 0.0	 1	 -10.927992	 10.927992;
	2441	 3506	 0.000417	 0.047801	 0.0	 661.0	 661.0	 661.0	 0.952413	 0.0	 1	 -10.927992	 10.927992;
	1367	 6826	 0.000755	 0.05143	 0.0	 615.0	 615.0	 615.0	 0.924009	 0.0	 1	 -10.927992	 10.927992;
	1676	 228	 0.000733	 0.052399	 0.0	 603.0	 603.0	 603.0	 0.934986	 0.0	 1	 -10.927992	 10.927992;
	7829	 6826	 0.00078	 0.064311	 0.0	 492.0	 492.0	 492.0	 0.0	 0.0	 1	 -10.927992	 10.927992;
	659	 3279	 0.00089	 0.048632	 0.0	 650.0	 650.0	 650.0	 0.987002	 0.0	 1	 -10.927992	 10.927992;
	5210	 792	 0.00855	 0.08972	 0.0	 351.0	 351.0	 351.0	 0.0	 0.0	 1	 -10.927992	 10.927992;
	1445	 792	 0.00223	 0.04836	 0.0	 653.0	 653.0	 653.0	 0.0	 0.0	 1	 -10.927992	 10.927992;
	7180	 2168	 0.000581	 0.043111	 0.0	 678.0	 733.0	 733.0	 0.924038	 0.0	 1	 -10.927992	 10.927992;
	6833	 8964	 0.000579	 0.043272	 0.0	 711.0	 730.0	 730.0	 0.901005	 0.0	 1	 -10.927992	 10.927992;
	3659	 3242	 0.000586	 0.049031	 0.0	 645.0	 645.0	 645.0	 0.923407	 0.0	 1	 -10.927992	 10.927992;
	8181	 4427	 0.000559	 0.049192	 0.0	 643.0	 643.0	 643.0	 0.924009	 0.0	 1	 -10.927992	 10.927992;
	9025	 7563	 0.000573	 0.051129	 0.0	 618.0	 618.0	 618.0	 0.934986	 0.0	 1	 -10.927992	 10.927992;
	2267	 5210	 0.000417	 0.039229	 0.0	 744.0	 806.0	 806.0	 0.967059	 0.0	 1	 -10.927992	 10.927992;
	5210	 7279	 0.230542	 1.197733	 0.0	 26.0	 26.0	 26.0	 0.0	 0.0	 1	 -10.927992	 10.927992;
	5210	 8335	 0.02284	 0.2644	 0.0	 120.0	 120.0	 120.0	 0.0	 0.0	 1	 -10.927992	 10.927992;
	5210	 2449	 0.08537	 0.736798	 0.0	 43.0	 43.0	 43.0	 0.0	 0.0	 1	 -10.927992	 10.927992;
	5210	 4665	 1.402768	 3.640289	 0.0	 9.0	 9.0	 9.0	 0.0	 0.0	 1	 -10.927992	 10.927992;
	5210	 4495	 1.050227	 4.450207	 0.0	 7.0	 7.0	 7.0	 0.0	 0.0	 1	 -10.927992	 10.927992;
	8179	 7279	 0.000716	 0.04371	 0.0	 723.0	 723.0	 723.0	 0.934986	 0.0	 1	 -10.927992	 10.927992;
	1445	 7279	 0.518622	 2.317689	 0.0	 14.0	 14.0	 14.0	 0.0	 0.0	 1	 -10.927992	 10.927992;
	5509	 8335	 0.00059	 0.045662	 0.0	 692.0	 692.0	 692.0	 0.955958	 0.0	 1	 -10.927992	 10.927992;
	5509	 1531	 0.000603	 0.050959	 0.0	 620.0	 620.0	 620.0	 0.968125	 0.0	 1	 -10.927992	 10.927992;
	1445	 8335	 0.047769	 0.554178	 0.0	 57.0	 57.0	 57.0	 0.0	 0.0	 1	 -10.927992	 10.927992;
	7762	 5155	 0.000591	 0.045153	 0.0	 700.0	 700.0	 700.0	 0.918868	 0.0	 1	 -10.927992	 10.927992;
	7762	 271	 0.0006	 0.047778	 0.0	 662.0	 662.0	 662.0	 0.948976	 0.0	 1	 -10.927992	 10.927992;
	7829	 5776	 0.02436	 0.270151	 0.0	 117.0	 117.0	 117.0	 0.0	 0.0	 1	 -10.927992	 10.927992;
	8329	 1445	 0.000802	 0.05727	 0.0	 552.0	 552.0	 552.0	 0.967021	 0.0	 1	 -10.927992	 10.927992;
	8329	 1445	 0.000823	 0.056059	 0.0	 564.0	 564.0	 564.0	 0.967021	 0.0	 1	 -10.927992	 10.927992;
	1445	 2449	 0.188099	 1.291901	 0.0	 25.0	 25.0	 25.0	 0.0	 0.0	 1	 -10.927992	 10.927992;
	1445	 4665	 2.466323	 7.26343	 0.0	 5.0	 5.0	 5.0	 0.0	 0.0	 1	 -10.927992	 10.927992;
	2268	 2908	 0.000523	 0.050352	 0.0	 628.0	 628.0	 628.0	 0.934622	 0.0	 1	 -10.927992	 10.927992;
	8847	 5776	 0.000682	 0.049638	 0.0	 637.0	 637.0	 637.0	 0.913034	 0.0	 1	 -10.927992	 10.927992;
	8847	 8103	 0.00099	 0.04736	 0.0	 667.0	 667.0	 667.0	 1.012146	 0.0	 1	 -10.927992	 10.927992;
	317	 2449	 0.000616	 0.048759	 0.0	 648.0	 648.0	 648.0	 0.933053	 0.0	 1	 -10.927992	 10.927992;
	7637	 8581	 9e-05	 0.015499	 0.0	 1698.0	 2038.0	 2038.0	 0.0	 -0.428189	 1	 -10.927992	 10.927992;
	5848	 7526	 9e-05	 0.00963	 0.0	 1698.0	 3280.0	 3280.0	 0.0	 0.178581	 1	 -10.927992	 10.927992;
	89	 4495	 0.000664	 0.045609	 0.0	 693.0	 693.0	 693.0	 0.924009	 0.0	 1	 -10.927992	 10.927992;
	2520	 4665	 0.000649	 0.044862	 0.0	 705.0	 705.0	 705.0	 0.933053	 0.0	 1	 -10.927992	 10.927992;
	5996	 8420	 0.00067	 0.04326	 0.0	 731.0	 731.0	 731.0	 0.923407	 0.0	 1	 -10.927992	 10.927992;
	2154	 5996	 9e-05	 0.009901	 0.0	 1698.0	 3191.0	 3191.0	 0.0	 -0.153178	 1	 -10.927992	 10.927992;
];

% INFO    : === Translation Options ===
% INFO    : Phase Angle Bound:           10.927992 (deg.)
% INFO    : AC OPF Solution File:        ./nesta_case89_pegase__sad.m.opf.sol
% INFO    : 
% INFO    : === Voltage Setpoint Replacement Notes ===
% INFO    : Bus 89	: V=1.00745, theta=-3.70538 -> V=1.00745, theta=-3.70538
% INFO    : Bus 228	: V=1.06415, theta=-6.09824 -> V=1.06415, theta=-6.09824
% INFO    : Bus 271	: V=1.0482, theta=-8.01848 -> V=1.0482, theta=-8.01848
% INFO    : Bus 317	: V=1.05653, theta=-0.70374 -> V=1.05653, theta=-0.70374
% INFO    : Bus 659	: V=1.05818, theta=-0.72698 -> V=1.05818, theta=-0.72698
% INFO    : Bus 792	: V=1.04807, theta=-7.06714 -> V=1.04807, theta=-7.06714
% INFO    : Bus 913	: V=1.03367, theta=-0.0 -> V=1.03367, theta=0.0
% INFO    : Bus 955	: V=1.00942, theta=-10.12428 -> V=1.00942, theta=-10.12428
% INFO    : Bus 1037	: V=1.0606, theta=-1.79258 -> V=1.0606, theta=-1.79258
% INFO    : Bus 1163	: V=1.02341, theta=-3.31693 -> V=1.02341, theta=-3.31693
% INFO    : Bus 1317	: V=1.04792, theta=-1.46258 -> V=1.04792, theta=-1.46258
% INFO    : Bus 1367	: V=1.03248, theta=-1.7353 -> V=1.03248, theta=-1.7353
% INFO    : Bus 1445	: V=1.04831, theta=-5.74157 -> V=1.04831, theta=-5.74157
% INFO    : Bus 1531	: V=1.03695, theta=-9.45846 -> V=1.03695, theta=-9.45846
% INFO    : Bus 1579	: V=1.01874, theta=-3.56392 -> V=1.01874, theta=-3.56392
% INFO    : Bus 1611	: V=1.05393, theta=-7.31635 -> V=1.05393, theta=-7.31635
% INFO    : Bus 1616	: V=1.01348, theta=-3.05654 -> V=1.01348, theta=-3.05654
% INFO    : Bus 1676	: V=1.02309, theta=-3.34091 -> V=1.02309, theta=-3.34091
% INFO    : Bus 1815	: V=1.06685, theta=-6.01637 -> V=1.06685, theta=-6.01637
% INFO    : Bus 1968	: V=1.03123, theta=-10.37964 -> V=1.03123, theta=-10.37964
% INFO    : Bus 2107	: V=1.03921, theta=0.41248 -> V=1.03921, theta=0.41248
% INFO    : Bus 2154	: V=1.03475, theta=2.41587 -> V=1.03475, theta=2.41587
% INFO    : Bus 2168	: V=1.02437, theta=-12.19123 -> V=1.02437, theta=-12.19123
% INFO    : Bus 2267	: V=1.05217, theta=3.87084 -> V=1.05217, theta=3.87084
% INFO    : Bus 2268	: V=0.99914, theta=-4.05024 -> V=0.99914, theta=-4.05024
% INFO    : Bus 2299	: V=1.05344, theta=-8.84177 -> V=1.05344, theta=-8.84177
% INFO    : Bus 2441	: V=0.9954, theta=-4.10419 -> V=0.9954, theta=-4.10419
% INFO    : Bus 2449	: V=1.1, theta=-8.45419 -> V=1.1, theta=-8.45419
% INFO    : Bus 2520	: V=1.00836, theta=-3.77448 -> V=1.00836, theta=-3.77448
% INFO    : Bus 2870	: V=1.0606, theta=-1.79258 -> V=1.0606, theta=-1.79258
% INFO    : Bus 2908	: V=1.02985, theta=-9.22351 -> V=1.02985, theta=-9.22351
% INFO    : Bus 3097	: V=1.0558, theta=-2.40946 -> V=1.0558, theta=-2.40946
% INFO    : Bus 3242	: V=1.06266, theta=-7.22259 -> V=1.06266, theta=-7.22259
% INFO    : Bus 3279	: V=1.04814, theta=-7.03766 -> V=1.04814, theta=-7.03766
% INFO    : Bus 3493	: V=1.05258, theta=-8.13531 -> V=1.05258, theta=-8.13531
% INFO    : Bus 3506	: V=1.00965, theta=-10.08971 -> V=1.00965, theta=-10.08971
% INFO    : Bus 3659	: V=1.04312, theta=1.00222 -> V=1.04312, theta=1.00222
% INFO    : Bus 4014	: V=1.05929, theta=-7.36732 -> V=1.05929, theta=-7.36732
% INFO    : Bus 4423	: V=1.05346, theta=-8.8216 -> V=1.05346, theta=-8.8216
% INFO    : Bus 4427	: V=1.04689, theta=-9.17888 -> V=1.04689, theta=-9.17888
% INFO    : Bus 4495	: V=1.04956, theta=-9.38617 -> V=1.04956, theta=-9.38617
% INFO    : Bus 4586	: V=1.06078, theta=-7.00797 -> V=1.06078, theta=-7.00797
% INFO    : Bus 4665	: V=1.05074, theta=-9.85248 -> V=1.05074, theta=-9.85248
% INFO    : Bus 4929	: V=1.06059, theta=-1.79256 -> V=1.06059, theta=-1.79256
% INFO    : Bus 5097	: V=1.0626, theta=-7.2216 -> V=1.0626, theta=-7.2216
% INFO    : Bus 5155	: V=1.03997, theta=-9.16282 -> V=1.03997, theta=-9.16282
% INFO    : Bus 5210	: V=1.04889, theta=-5.37654 -> V=1.04889, theta=-5.37654
% INFO    : Bus 5416	: V=1.05112, theta=4.21523 -> V=1.05112, theta=4.21523
% INFO    : Bus 5509	: V=1.01069, theta=-4.41987 -> V=1.01069, theta=-4.41987
% INFO    : Bus 5587	: V=1.05269, theta=-8.09917 -> V=1.05269, theta=-8.09917
% INFO    : Bus 5762	: V=1.03879, theta=0.68168 -> V=1.03879, theta=0.68168
% INFO    : Bus 5776	: V=1.08515, theta=-8.56968 -> V=1.08515, theta=-8.56968
% INFO    : Bus 5848	: V=1.02153, theta=-3.21943 -> V=1.02153, theta=-3.21943
% INFO    : Bus 5996	: V=1.03874, theta=0.68191 -> V=1.03874, theta=0.68191
% INFO    : Bus 6069	: V=0.98293, theta=-5.30902 -> V=0.98293, theta=-5.30902
% INFO    : Bus 6233	: V=1.05679, theta=-0.66569 -> V=1.05679, theta=-0.66569
% INFO    : Bus 6293	: V=0.99849, theta=-3.73097 -> V=0.99849, theta=-3.73097
% INFO    : Bus 6542	: V=1.07921, theta=-8.41217 -> V=1.07921, theta=-8.41217
% INFO    : Bus 6704	: V=1.015, theta=-3.1908 -> V=1.015, theta=-3.1908
% INFO    : Bus 6798	: V=1.06105, theta=-0.60531 -> V=1.06105, theta=-0.60531
% INFO    : Bus 6826	: V=1.08691, theta=-8.70724 -> V=1.08691, theta=-8.70724
% INFO    : Bus 6833	: V=0.9742, theta=-6.03477 -> V=0.9742, theta=-6.03477
% INFO    : Bus 7051	: V=1.02787, theta=-3.13298 -> V=1.02787, theta=-3.13298
% INFO    : Bus 7180	: V=0.97684, theta=-6.1237 -> V=0.97684, theta=-6.1237
% INFO    : Bus 7279	: V=1.05929, theta=-7.36732 -> V=1.05929, theta=-7.36732
% INFO    : Bus 7526	: V=1.02746, theta=-2.45623 -> V=1.02746, theta=-2.45623
% INFO    : Bus 7563	: V=1.0541, theta=-10.04681 -> V=1.0541, theta=-10.04681
% INFO    : Bus 7637	: V=1.04918, theta=10.22889 -> V=1.04918, theta=10.22889
% INFO    : Bus 7762	: V=1.01711, theta=-2.35205 -> V=1.01711, theta=-2.35205
% INFO    : Bus 7829	: V=1.07169, theta=-5.78011 -> V=1.07169, theta=-5.78011
% INFO    : Bus 7960	: V=1.05993, theta=-0.66374 -> V=1.05993, theta=-0.66374
% INFO    : Bus 8103	: V=1.01812, theta=-4.41932 -> V=1.01812, theta=-4.41932
% INFO    : Bus 8179	: V=1.01134, theta=-3.55486 -> V=1.01134, theta=-3.55486
% INFO    : Bus 8181	: V=1.01109, theta=-3.33355 -> V=1.01109, theta=-3.33355
% INFO    : Bus 8229	: V=1.08515, theta=-8.56968 -> V=1.08515, theta=-8.56968
% INFO    : Bus 8329	: V=1.05248, theta=-1.20302 -> V=1.05248, theta=-1.20302
% INFO    : Bus 8335	: V=1.03695, theta=-9.48054 -> V=1.03695, theta=-9.48054
% INFO    : Bus 8420	: V=1.05422, theta=-7.27267 -> V=1.05422, theta=-7.27267
% INFO    : Bus 8574	: V=1.01338, theta=-3.34802 -> V=1.01338, theta=-3.34802
% INFO    : Bus 8581	: V=1.05348, theta=21.1466 -> V=1.05348, theta=21.1466
% INFO    : Bus 8605	: V=1.03291, theta=-1.67515 -> V=1.03291, theta=-1.67515
% INFO    : Bus 8847	: V=1.026, theta=-3.37903 -> V=1.026, theta=-3.37903
% INFO    : Bus 8921	: V=1.01751, theta=-2.98155 -> V=1.01751, theta=-2.98155
% INFO    : Bus 8964	: V=1.02424, theta=-12.22247 -> V=1.02424, theta=-12.22247
% INFO    : Bus 9024	: V=1.06646, theta=-4.58277 -> V=1.06646, theta=-4.58277
% INFO    : Bus 9025	: V=1.01234, theta=-3.10148 -> V=1.01234, theta=-3.10148
% INFO    : Bus 9064	: V=1.01335, theta=-3.09714 -> V=1.01335, theta=-3.09714
% INFO    : Bus 9192	: V=1.03222, theta=-10.14016 -> V=1.03222, theta=-10.14016
% INFO    : Bus 9239	: V=1.05999, theta=-0.66147 -> V=1.05999, theta=-0.66147
% INFO    : 
% INFO    : === Generator Setpoint Replacement Notes ===
% INFO    : Gen at bus 913	: Pg=1694.059, Qg=527.8 -> Pg=1694.059, Qg=527.8
% INFO    : Gen at bus 913	: Vg=1.03367 -> Vg=1.03367
% INFO    : Gen at bus 2107	: Pg=1209.679, Qg=661.9 -> Pg=1209.679, Qg=661.9
% INFO    : Gen at bus 2107	: Vg=1.03921 -> Vg=1.03921
% INFO    : Gen at bus 2267	: Pg=166.67, Qg=228.16 -> Pg=166.67, Qg=228.16
% INFO    : Gen at bus 2267	: Vg=1.05217 -> Vg=1.05217
% INFO    : Gen at bus 3659	: Pg=666.67, Qg=372.31 -> Pg=666.67, Qg=372.31
% INFO    : Gen at bus 3659	: Vg=1.04312 -> Vg=1.04312
% INFO    : Gen at bus 4586	: Pg=50.946, Qg=-29.81 -> Pg=50.946, Qg=-29.81
% INFO    : Gen at bus 4586	: Vg=1.06078 -> Vg=1.06078
% INFO    : Gen at bus 5097	: Pg=21.23, Qg=4.171 -> Pg=21.23, Qg=4.171
% INFO    : Gen at bus 5097	: Vg=1.0626 -> Vg=1.0626
% INFO    : Gen at bus 6233	: Pg=532.01, Qg=-189.97 -> Pg=532.01, Qg=-189.97
% INFO    : Gen at bus 6233	: Vg=1.05679 -> Vg=1.05679
% INFO    : Gen at bus 6798	: Pg=333.331, Qg=355.857 -> Pg=333.331, Qg=355.857
% INFO    : Gen at bus 6798	: Vg=1.06105 -> Vg=1.06105
% INFO    : Gen at bus 7279	: Pg=100.0, Qg=-6.64 -> Pg=100.0, Qg=-6.64
% INFO    : Gen at bus 7279	: Vg=1.05929 -> Vg=1.05929
% INFO    : Gen at bus 7960	: Pg=222.612, Qg=274.199 -> Pg=222.612, Qg=274.199
% INFO    : Gen at bus 7960	: Vg=1.05993 -> Vg=1.05993
% INFO    : Gen at bus 8605	: Pg=600.0, Qg=125.51 -> Pg=600.0, Qg=125.51
% INFO    : Gen at bus 8605	: Vg=1.03291 -> Vg=1.03291
% INFO    : Gen at bus 9239	: Pg=222.601, Qg=274.199 -> Pg=222.601, Qg=274.199
% INFO    : Gen at bus 9239	: Vg=1.05999 -> Vg=1.05999
% INFO    : 
% INFO    : === Writing Matpower Case File Notes ===
